[TITLE]
;;Project Title/Notes

[OPTIONS]
;;Option             Value
FLOW_UNITS           LPS
INFILTRATION         HORTON
FLOW_ROUTING         DYNWAVE
LINK_OFFSETS         DEPTH
MIN_SLOPE            0
ALLOW_PONDING        NO
SKIP_STEADY_STATE    NO

START_DATE           08/28/2015
START_TIME           08:00:00
REPORT_START_DATE    08/28/2015
REPORT_START_TIME    08:00:00
END_DATE             08/28/2015
END_TIME             17:50:00
SWEEP_START          01/01
SWEEP_END            12/31
DRY_DAYS             8
REPORT_STEP          00:01:00
WET_STEP             00:01:00
DRY_STEP             00:01:00
ROUTING_STEP         0:00:05 
RULE_STEP            00:00:00

INERTIAL_DAMPING     PARTIAL
NORMAL_FLOW_LIMITED  BOTH
FORCE_MAIN_EQUATION  H-W
VARIABLE_STEP        0.75
LENGTHENING_STEP     0
MIN_SURFAREA         1.14
MAX_TRIALS           8
HEAD_TOLERANCE       0.0015
SYS_FLOW_TOL         5
LAT_FLOW_TOL         5
MINIMUM_STEP         0.5
THREADS              4

[EVAPORATION]
;;Data Source    Parameters
;;-------------- ----------------
CONSTANT         0
DRY_ONLY         NO

[RAINGAGES]
;;Name           Format    Interval SCF      Source    
;;-------------- --------- ------ ------ ----------
rainfall         INTENSITY 0:01     1        TIMESERIES Oneyear-2h      

[SUBCATCHMENTS]
;;Name           Rain Gage        Outlet           Area     %Imperv  Width    %Slope   CurbLen  SnowPack        
;;-------------- ---------------- ---------------- -------- -------- -------- -------- -------- ----------------
sub0             rainfall         WS02006253       0.081    93       18       0.43     0                        
sub1             rainfall         HS02004876       0.665    89       55       0.26     0                        
sub2             rainfall         HS02004862       0.932    63       61       0.12     0                        
sub3             rainfall         HS02004848       2.251    63       108      0.11     0                        
sub4             rainfall         HS02004824       2.086    89       73       0.22     0                        
sub5             rainfall         YSB1154          1.133    93       83       0.36     0                        
sub7             rainfall         HS02004881       0.337    91       35       0.48     0                        
sub8             rainfall         HS02004870       0.639    91       56       0.45     0                        
sub9             rainfall         HS02004856       0.481    91       40       0.46     0                        
sub10            rainfall         HS02004837       1.103    92       81       0.42     0                        
sub11            rainfall         HS02004807       1.162    92       95       0.6      0                        
sub12            rainfall         YSB1174          0.874    87       77       1.31     0                        
sub14            rainfall         HS02004799       0.952    91       72       0.52     0                        
sub15            rainfall         HS02004788       1.72     70       93       0.53     0                        
sub16            rainfall         HS02004901       1.047    67       84       0.69     0                        
sub17            rainfall         WS02006112       0.858    68       68       0.61     0                        
sub22            rainfall         HS02004792       6.317    57       125      4.29     0                        
sub23            rainfall         HS02004770       4.77     63       96       5.68     0                        
sub60            rainfall         YS02001745       2.314    88       108      0.64     0                        
sub61            rainfall         YS02001759       2.835    83       127      0.96     0                        
sub62            rainfall         YS02001770       2.74     92       138      0.78     0                        
sub63            rainfall         YS02001664       2.27     71       138      0.8      0                        
sub64            rainfall         YS02001644       2.02     85       124      0.43     0                        
sub65            rainfall         YS02001633       2.753    87       136      0.12     0                        
sub66            rainfall         YS02001619       2.663    71       194      0.16     0                        
sub67            rainfall         YS02001887       1.86     92       104      0.78     0                        
sub68            rainfall         YS02006558       2.752    86       156      0.84     0                        
sub69            rainfall         sub70            0.3702   85       165      0.41     0                        
sub70            rainfall         1                2.889    66       127      0.09     0                        
sub71            rainfall         YS02001915       2.615    92       12.8     0.4      0                        
sub72            rainfall         YS02001929       1.375    93       89       0.12     0                        
1                rainfall         XR-storage       0.5      66       120      0.09     0                        
2                rainfall         XR-storage       1        25       140      0.09     0                        

[SUBAREAS]
;;Subcatchment   N-Imperv   N-Perv     S-Imperv   S-Perv     PctZero    RouteTo    PctRouted 
;;-------------- ---------- ---------- ---------- ---------- ---------- ---------- ----------
sub0             0.01       0.1        0.05       0.05       25         OUTLET    
sub1             0.01       0.1        0.05       0.05       25         OUTLET    
sub2             0.01       0.1        0.05       0.05       25         OUTLET    
sub3             0.01       0.1        0.05       0.05       25         OUTLET    
sub4             0.01       0.1        0.05       0.05       25         OUTLET    
sub5             0.01       0.1        0.05       0.05       25         OUTLET    
sub7             0.01       0.1        0.05       0.05       25         OUTLET    
sub8             0.01       0.1        0.05       0.05       25         OUTLET    
sub9             0.01       0.1        0.05       0.05       25         OUTLET    
sub10            0.01       0.1        0.05       0.05       25         OUTLET    
sub11            0.01       0.1        0.05       0.05       25         OUTLET    
sub12            0.01       0.1        0.05       0.05       25         OUTLET    
sub14            0.01       0.1        0.05       0.05       25         OUTLET    
sub15            0.01       0.1        0.05       0.05       25         OUTLET    
sub16            0.01       0.1        0.05       0.05       25         OUTLET    
sub17            0.01       0.1        0.05       0.05       25         OUTLET    
sub22            0.01       0.1        0.05       0.05       25         OUTLET    
sub23            0.01       0.1        0.05       0.05       25         OUTLET    
sub60            0.01       0.1        0.05       0.05       25         OUTLET    
sub61            0.01       0.1        0.05       0.05       25         OUTLET    
sub62            0.01       0.1        0.05       0.05       25         OUTLET    
sub63            0.01       0.1        0.05       0.05       25         OUTLET    
sub64            0.01       0.1        0.05       0.05       25         OUTLET    
sub65            0.01       0.1        0.05       0.05       25         OUTLET    
sub66            0.01       0.1        0.05       0.05       25         OUTLET    
sub67            0.01       0.1        0.05       0.05       25         OUTLET    
sub68            0.01       0.1        0.05       0.05       25         OUTLET    
sub69            0.01       0.1        0.05       0.05       25         OUTLET    
sub70            0.01       0.1        0.05       0.05       25         OUTLET    
sub71            0.01       0.1        0.05       0.05       25         OUTLET    
sub72            0.01       0.1        0.05       0.05       25         OUTLET    
1                0.01       0.1        0.05       0.05       25         OUTLET    
2                0.01       0.1        0.05       0.05       25         OUTLET    

[INFILTRATION]
;;Subcatchment   MaxRate    MinRate    Decay      DryTime    MaxInfil  
;;-------------- ---------- ---------- ---------- ---------- ----------
sub0             20.6       3.94       6.55       7          0         
sub1             20.6       3.94       6.55       7          0         
sub2             20.6       3.94       6.55       7          0         
sub3             20.6       3.94       6.55       7          0         
sub4             20.6       3.94       6.55       7          0         
sub5             20.6       3.94       6.55       7          0         
sub7             20.6       3.94       6.55       7          0         
sub8             20.6       3.94       6.55       7          0         
sub9             20.6       3.94       6.55       7          0         
sub10            20.6       3.94       6.55       7          0         
sub11            20.6       3.94       6.55       7          0         
sub12            20.6       3.94       6.55       7          0         
sub14            20.6       3.94       6.55       7          0         
sub15            20.6       3.94       6.55       7          0         
sub16            20.6       3.94       6.55       7          0         
sub17            20.6       3.94       6.55       7          0         
sub22            20.6       3.94       6.55       7          0         
sub23            20.6       3.94       6.55       7          0         
sub60            20.6       3.94       6.55       7          0         
sub61            20.6       3.94       6.55       7          0         
sub62            20.6       3.94       6.55       7          0         
sub63            20.6       3.94       6.55       7          0         
sub64            20.6       3.94       6.55       7          0         
sub65            20.6       3.94       6.55       7          0         
sub66            20.6       3.94       6.55       7          0         
sub67            20.6       3.94       6.55       7          0         
sub68            20.6       3.94       6.55       7          0         
sub69            20.6       3.94       6.55       7          0         
sub70            20.6       3.94       6.55       7          0         
sub71            20.6       3.94       6.55       7          0         
sub72            20.6       3.94       6.55       7          0         
1                3.0        0.5        4          7          0         
2                3.0        0.5        4          7          0         

[JUNCTIONS]
;;Name           Elevation  MaxDepth   InitDepth  SurDepth   Aponded   
;;-------------- ---------- ---------- ---------- ---------- ----------
WS02001211       4.838      4.1        0          0          0         
WS02001212       5.064      3.9        0          0          0         
WS02001213       4.762      4.25       0          0          0         
WS02003069       4.585      4.76       0          0          0         
WS02003072       4.371      4.97       0          0          0         
WS02003073       4.065      5.49       0          0          0         
WS02003060       4.932      4.39       0          0          0         
WS02003066       5.554      4.36       0          0          0         
WS02003059       4.687      4.53       0          0          0         
WS02003067       5.32       4.22       0          0          0         
WS02004401       6          2.66       0          0          0         
WS02004402       5.96       2.74       0          0          0         
WS02004403       5.93       3.03       0          0          0         
WS02004404       5.85       3.78       0          0          0         
WS02004406       5.83       3.45       0          0          0         
WS02004409       5.77       3.36       0          0          0         
WS02004410       5.72       3.54       0          0          0         
WS02004411       5.68       3.53       0          0          0         
WS02004412       5.64       3.31       0          0          0         
WS02004413       5.47       3.2        0          0          0         
WS02004405       5.85       3.8        0          0          0         
WS02006109       6.618      2.64       0          0          0         
WS02006110       6.585      2.76       0          0          0         
WS02006111       6.707      2.68       0          0          0         
WS02006112       5.883      2.68       0          0          0         
WS02006113       6.893      2.73       0          0          0         
WS02006115       6.139      3.26       0          0          0         
WS02006116       6.04       3.35       0          0          0         
WS02006230       6.745      2.65       0          0          0         
WS02006231       7.123      2.24       0          0          0         
WS02006232       7.039      2.18       0          0          0         
WS02006234       7.157      1.96       0          0          0         
WS02006235       7.164      2          0          0          0         
WS02006238       7.144      2.15       0          0          0         
WS02006240       7.293      2.1        0          0          0         
WS02006242       7.269      1.55       0          0          0         
WS02006243       7.42       1.48       0          0          0         
WS02006245       7.485      1.56       0          0          0         
WS02006247       7.5        1.47       0          0          0         
WS02006248       7.587      1.1        0          0          0         
WS02006249       7.598      1.09       0          0          0         
WS02006239       7.209      2.03       0          0          0         
WS02006251       7.67       2.21       0          0          0         
WS02006252       8.242      1.5        0          0          0         
WS02006253       7.644      3.52       0          0          0         
WS02006256       6.935      2.35       0          0          0         
WS02004138       7.249      2.3        0          0          0         
WS02004139       4.91       3.88       0          0          0         
WS02004407       6.313      3.34       0          0          0         
WS02006228       6.651      3.03       0          0          0         
WS02006229       6.694      3.25       0          0          0         
WS02006280       8.271      1.83       0          0          0         
WS02006284       8.399      2.08       0          0          0         
WS02006287       8.955      1.89       0          0          0         
WSF200           5.2328     4.35       0          0          0         
HS02004901       9.823      1.42       0          0          0         
HS02004881       9.029      2.15       0          0          0         
HS02004876       9.03       2.26       0          0          0         
HS02004870       9.287      2.1        0          0          0         
HS02004862       9.384      2          0          0          0         
HS02004856       9.426      2.07       0          0          0         
HS02004852       9.512      2.12       0          0          0         
HS02004848       9.601      2.07       0          0          0         
HS02004842       9.27       2.22       0          0          0         
HS02004837       9.58       2.04       0          0          0         
HS02004830       9.469      2.03       0          0          0         
HS02004824       9.403      2.01       0          0          0         
HS02004817       8.848      2.44       0          0          0         
HS02004807       9.17       1.92       0          0          0         
HS02004802       9.129      1.92       0          0          0         
HS02004799       9.211      1.76       0          0          0         
HS02004792       9.524      1.6        0          0          0         
HS02004788       9.899      1.42       0          0          0         
HS02004785       9.901      1.49       0          0          0         
HS02004777       9.799      1.48       0          0          0         
HS02004770       9.831      1.42       0          0          0         
HS02004480       9.241      1.81       0          0          0         
HS02004479       9.204      1.85       0          0          0         
HS02004478       9.228      1.86       0          0          0         
YS02001745       7.517      2.35       0          0          0         
YS02001748       7.077      2.27       0          0          0         
YS02001751       6.879      2.2        0          0          0         
YS02001754       6.608      2.2        0          0          0         
YS02001762       6.4        2.15       0          0          0         
YS02001765       6.45       2.1        0          0          0         
YS02001767       6.489      2.03       0          0          0         
YS02001770       6.495      1.95       0          0          0         
YS02001774       6.422      2.05       0          0          0         
YS02001779       6.686      1.68       0          0          0         
YS02001882       6.716      1.83       0          0          0         
YS02001884       6.617      1.93       0          0          0         
YS02001759       6.364      2.21       0          0          0         
YS02001887       6.538      2          0          0          0         
YS02001890       6.506      1.81       0          0          0         
YS02001898       6.735      1.77       0          0          0         
YS02001901       6.609      1.87       0          0          0         
YS02001904       6.63       1.85       0          0          0         
YS02001907       6.289      1.96       0          0          0         
YS02001910       6.507      2.1        0          0          0         
YS02001915       6.718      2          0          0          0         
YS02001918       7.066      1.81       0          0          0         
YS02001619       6.929      1.61       0          0          0         
YS02001629       6.549      1.85       0          0          0         
YS02001641       6.437      2.1        0          0          0         
YS02001644       6.432      1.92       0          0          0         
YS02001652       6.596      2.16       0          0          0         
YS02001655       6.85       2.2        0          0          0         
YS02001920       7.008      2.14       0          0          0         
YS02001923       7.26       2.03       0          0          0         
YS02001926       7.445      1.9        0          0          0         
YS02001929       7.694      1.78       0          0          0         
YS02001658       7.142      2.3        0          0          0         
YS02001661       7.404      2.46       0          0          0         
YS02001664       7.925      2.31       0          0          0         
YS02001622       6.904      1.62       0          0          0         
YS02001633       6.454      2.08       0          0          0         
YS02001649       6.39       2.05       0          0          0         
YS02001757       6.261      2.21       0          0          0         
YS02001895       6.747      1.75       0          0          0         
YS02001625       6.604      1.78       0          0          0         
YS02163301       6.517      2.03       0          0          0         
YS02163601       6.398      2.08       0          0          0         
YS02164001       6.458      2.1        0          0          0         
YS02001647       6.61       1.9        0          0          0         
YSB1154          9.058      2.1        0          0          0         
YSB6556          9.169      1.8        0          0          0         
YSB1174          9.109      1.95       0          0          0         
YSB1171          8.904      1.95       0          0          0         
YS02006553       6.284      2.19       0          0          0         
YS02006561       6.66       1.95       0          0          0         
YS02006556       6.311      2.39       0          0          0         
YS02006558       6.267      2.5        0          0          0         
YS02001783       6.141      2.4        0          0          0         
YS02001784       6.068      2.29       0          0          0         
YS02001786       6.03       2.23       0          0          0         
YS02001788       5.977      2.28       0          0          0         
YS02001790       5.645      1.957      0          0          0         
YS02001791       5.47       2.72       0          0          0         
YS02001793       4.832      3.6        0          0          0         

[OUTFALLS]
;;Name           Elevation  Type       Stage Data       Gated    Route To        
;;-------------- ---------- ---------- ---------------- -------- ----------------
WSC              0.67       FREE                        NO                       

[STORAGE]
;;Name           Elev.    MaxDepth   InitDepth  Shape      Curve Name/Params            N/A      Fevap    Psi      Ksat     IMD     
;;-------------- -------- ---------- ----------- ---------- ---------------------------- -------- --------          -------- --------
JK-storage       0.8      5.8        3          TABULAR    ½¡¿µÂ·Ç°³Ø                        0        0       
CC-storage       7        5.63       0          TABULAR    ²Ý³Çµ÷Ðî³Ø                        0        0       
XR-storage       -2       7.72       5          TABULAR    Ï´¶ú³ØÇ°³Ø                        0        0       

[CONDUITS]
;;Name           From Node        To Node          Length     Roughness  InOffset   OutOffset  InitFlow   MaxFlow   
;;-------------- ---------------- ---------------- ---------- ---------- ---------- ---------- ---------- ----------
WS02003066WSF200 WS02003066       WSF200           16.23      0.013      0.0528     0          0          0         
WS02006287WS02006284 WS02006287       WS02006284       37.78      0.013      0          0.25       0          0         
WS02006284WS02006280 WS02006284       WS02006280       36.09      0.013      0.28       0.05       0          0         
WS02006280WS02006229 WS02006280       WS02006229       10.4       0.013      0          1.18       0          0         
WS02006229WS02006228 WS02006229       WS02006228       24.94      0.013      0          0.03       0          0         
WS02006256WS02006235 WS02006256       WS02006235       23.99      0.013      0          0          0          0         
WS02006253WS02006251 WS02006253       WS02006251       27.77      0.013      0          0.01       0          0         
WS02006252WS02006251 WS02006252       WS02006251       3.39       0.013      0          0.63       0          0         
WS02006251WS02006249 WS02006251       WS02006249       51.36      0.013      0          0          0          0         
WS02006249WS02006248 WS02006249       WS02006248       23.17      0.013      0          0.02       0          0         
WS02006248WS02006247 WS02006248       WS02006247       31.3       0.013      0          0.01       0          0         
WS02006247WS02006245 WS02006247       WS02006245       26.97      0.013      0          0.01       0          0         
WS02006245WS02006243 WS02006245       WS02006243       41.28      0.013      0          0.01       0          0         
WS02006243WS02006242 WS02006243       WS02006242       47.39      0.013      0          0.03       0          0         
WS02006242WS02006240 WS02006242       WS02006240       46.01      0.013      0          0.01       0          0         
WS02006240WS02006239 WS02006240       WS02006239       37.38      0.013      0          0.04       0          0         
WS02006239WS02006238 WS02006239       WS02006238       39.53      0.013      0          0.02       0          0         
WS02006238WS02006235 WS02006238       WS02006235       8.55       0.013      0          0          0          0         
WS02006235WS02006234 WS02006235       WS02006234       28.65      0.013      0.01       0.02       0          0         
WS02006234WS02006232 WS02006234       WS02006232       41.43      0.013      0          0          0          0         
WS02006232WS02006231 WS02006232       WS02006231       35.41      0.013      0          0.01       0          0         
WS02006231WS02006230 WS02006231       WS02006230       39.48      0.013      0          0.38       0          0         
WS02006230WS02006229 WS02006230       WS02006229       42.49      0.013      0          0.05       0          0         
WS02006228WS02006109 WS02006228       WS02006109       43.4       0.013      0          0.02       0          0         
WS02006116WS02004401 WS02006116       WS02004401       43.69      0.013      0          0          0          0         
WS02006115WS02006116 WS02006115       WS02006116       36.93      0.013      0          0.06       0          0         
WS02006113WS02006111 WS02006113       WS02006111       46.74      0.013      0          0          0          0         
WS02006112WS02006115 WS02006112       WS02006115       53.28      0.013      0          0.01       0          0         
WS02006111WS02006112 WS02006111       WS02006112       32.19      0.013      0.01       0.02       0          0         
WS02006110WS02006113 WS02006110       WS02006113       44.59      0.013      0          0          0          0         
WS02006109WS02006110 WS02006109       WS02006110       49.78      0.013      0          0.11       0          0         
WS02004411WS02004412 WS02004411       WS02004412       46.4       0.013      0          0          0          0         
WS02004401WS02004402 WS02004401       WS02004402       33.14      0.013      0          0          0          0         
WS02004413WS02003067 WS02004413       WS02003067       37.95      0.013      0          0.51       0          0         
WS02004412WS02004413 WS02004412       WS02004413       43.84      0.013      0          0          0          0         
WS02004410WS02004411 WS02004410       WS02004411       42.9       0.013      0          0          0          0         
WS02004409WS02004410 WS02004409       WS02004410       48.08      0.013      0          0          0          0         
WS02004407WS02004409 WS02004407       WS02004409       39.19      0.013      0          0          0          0         
WS02004406WS02004407 WS02004406       WS02004407       55.46      0.013      0          0          0          0         
WS02004405WS02004406 WS02004405       WS02004406       44.74      0.013      0          0          0          0         
WS02004404WS02004405 WS02004404       WS02004405       16.82      0.013      0          0          0          0         
WS02004403WS02004404 WS02004403       WS02004404       24.03      0.013      0          0          0          0         
WS02004402WS02004403 WS02004402       WS02004403       35.6       0.013      0          0          0          0         
WS02004139WS02001211 WS02004139       WS02001211       68         0.013      0          0.1        0          0         
WS02004138WS02004139 WS02004138       WS02004139       58.63      0.013      0          0.05       0          0         
WS02003067WS02003066 WS02003067       WS02003066       36.54      0.013      0          0          0          0         
WS02001213WS02003059 WS02001213       WS02003059       86.11      0.013      0          0.02       0          0         
WS02001212WS02001213 WS02001212       WS02001213       24.63      0.013      0          0.32       0          0         
WS02001211WS02001212 WS02001211       WS02001212       75.94      0.013      0          0          0          0         
WS02003072WS02003073 WS02003072       WS02003073       42.55      0.013      0          0.3        0          0         
WS02003069WS02003072 WS02003069       WS02003072       75.41      0.013      0          0          0          0         
WS02003060WS02003069 WS02003060       WS02003069       80.89      0.013      0          0          0          0         
WS02003059WS02003060 WS02003059       WS02003060       60.05      0.013      0          0          0          0         
HS02004901HS02004770 HS02004901       HS02004770       39.92      0.013      0          0          0          0         
HS02004876HS02004881 HS02004876       HS02004881       39.88      0.013      0          0          0          0         
HS02004870HS02004876 HS02004870       HS02004876       39.88      0.013      0          0          0          0         
HS02004842HS02004848 HS02004842       HS02004848       39.57      0.013      0          0          0          0         
HS02004837HS02004842 HS02004837       HS02004842       38.94      0.013      0          0          0          0         
HS02004830HS02004837 HS02004830       HS02004837       38.82      0.013      0          0          0          0         
HS02004824HS02004830 HS02004824       HS02004830       39.85      0.013      0          0          0          0         
HS02004817HS02004824 HS02004817       HS02004824       39.76      0.013      0          0          0          0         
HS02004770HS02004777 HS02004770       HS02004777       37.73      0.013      0          0          0          0         
HS02004799HS02004480 HS02004799       HS02004480       22.51      0.013      0          0.01       0          0         
HS02004792HS02004799 HS02004792       HS02004799       41.35      0.013      0          0          0          0         
HS02004788HS02004792 HS02004788       HS02004792       57.89      0.013      0          0          0          0         
HS02004785HS02004788 HS02004785       HS02004788       40.08      0.013      0          0          0          0         